@<TRIPOS>MOLECULE
***** 
37 37 0 0 0
SMALL
USER_CHARGES
#CGenFF output mol2 file
@<TRIPOS>ATOM
1	N1     0.0000     0.0000     0.0000	N.3	1	GLY3    -0.9450
2	CA1     1.4468     0.0000     0.0000	C.3	1	GLY3     0.0860
3	C1     1.9682     0.0000     1.4335	C.2	1	GLY3     0.5050
4	O1     2.9374    -0.6580     1.8038	O.2	1	GLY3    -0.4990
5	HA1     1.7989    -0.8960    -0.5224	H	1	GLY3     0.0900
6	HA2     1.7997     0.8930    -0.5236	H	1	GLY3     0.0900
7	H1    -0.4722    -0.0025     0.8997	H	1	GLY3     0.3380
8	HN    -0.5080     0.0767    -0.8765	H	1	GLY3     0.3380
9	N2     1.3619     0.7459     2.3670	N.am	1	GLY3    -0.3970
10	C2     1.8615     0.7458     3.7407	C.3	1	GLY3     0.0200
11	C3     1.7714    -0.7055     4.2423	C.2	1	GLY3     0.5350
12	O2     2.6430    -1.2287     4.9359	O.2	1	GLY3    -0.5160
13	C4     1.0402     1.6911     4.6332	C.3	1	GLY3    -0.1820
14	H2     0.7578     2.5962     4.0790	H	1	GLY3     0.0900
15	H3     0.0902     1.2185     4.9164	H	1	GLY3     0.0900
16	C5     1.7818     2.1336     5.8738	C.ar	1	GLY3    -0.0050
17	C6     1.4849     1.5774     7.1254	C.ar	1	GLY3    -0.6020
18	H4     0.7012     0.8295     7.2281	H	1	GLY3     0.2800
19	C7     2.1964     1.9741     8.2582	C.ar	1	GLY3     0.0880
20	O3     1.9684     1.5410     9.2281	O.3	1	GLY3    -0.7610
21	C8     3.1949     2.9340     8.1445	C.ar	1	GLY3     0.0800
22	C9     3.4978     3.5055     6.9137	C.ar	1	GLY3    -0.5910
23	H5     4.2717     4.2606     6.8164	H	1	GLY3     0.2800
24	C10     2.7920     3.1030     5.7784	C.ar	1	GLY3    -0.1180
25	H6     3.0288     3.5540     4.8148	H	1	GLY3     0.1150
26	O4     3.8617     3.2931     9.2780	O.3	1	GLY3    -0.7610
27	H7     2.9181     1.0381     3.7050	H	1	GLY3     0.0900
28	H8     0.8116    -0.0559     2.0702	H	1	GLY3     0.3330
29	N3     0.7092    -1.4589     3.9265	N.am	1	GLY3    -0.4570
30	CA2     0.6246    -2.8240     4.3981	C.3	1	GLY3    -0.0780
31	C11     1.8075    -3.6314     3.8729	C.2	1	GLY3     0.7430
32	O5     2.4126    -4.4644     4.5431	O.2	1	GLY3    -0.5680
33	HA3     0.6362    -2.8195     5.4934	H	1	GLY3     0.0900
34	HA4    -0.3118    -3.2629     4.0425	H	1	GLY3     0.0900
35	H9     1.4996    -1.2106     3.3383	H	1	GLY3     0.2770
36	OXT     2.1812    -3.3901     2.5972	O.3	1	GLY3    -0.5980
37	HO     1.6571    -2.6686     2.0167	H	1	GLY3     0.4300
@<TRIPOS>BOND
1	8	1	1
2	1	2	1
3	2	3	1
4	3	4	2
5	3	9	1
6	9	10	1
7	10	11	1
8	11	12	2
9	11	29	1
10	29	30	1
11	30	31	1
12	31	32	2
13	36	31	1
14	37	36	1
15	1	7	1
16	9	28	1
17	10	13	1
18	10	27	1
19	13	16	1
20	16	17	2
21	16	24	1
22	17	19	1
23	19	21	2
24	21	22	1
25	21	26	1
26	22	24	2
27	29	35	1
28	6	2	1
29	5	2	1
30	34	30	1
31	14	13	1
32	30	33	1
33	13	15	1
34	25	24	1
35	23	22	1
36	17	18	1
37	19	20	1
