@<TRIPOS>MOLECULE
*****
 37 37 0 0 0
SMALL
GASTEIGER

@<TRIPOS>ATOM
      1 N           0.0000    0.0000    0.0000 N.3     1  GLY1       -0.3225
      2 CA          1.4468    0.0000    0.0000 C.3     1  GLY1        0.0707
      3 C           1.9682    0.0000    1.4335 C.2     1  GLY1        0.2273
      4 O           2.9374   -0.6580    1.8038 O.2     1  GLY1       -0.2744
      5 HA1         1.7989   -0.8960   -0.5224 H       1  GLY1        0.0518
      6 HA2         1.7997    0.8930   -0.5236 H       1  GLY1        0.0518
      7 H          -0.4722   -0.0025    0.8997 H       1  GLY1        0.1186
      8 HN         -0.5080    0.0767   -0.8765 H       1  GLY1        0.1186
      9 N           1.3619    0.7459    2.3670 N.am    2  TYR2       -0.3026
     10 C           1.8615    0.7458    3.7407 C.3     2  TYR2        0.1033
     11 C           1.7714   -0.7055    4.2423 C.2     2  TYR2        0.2341
     12 O           2.6430   -1.2287    4.9359 O.2     2  TYR2       -0.2738
     13 C           1.0402    1.6911    4.6332 C.3     2  TYR2       -0.0005
     14 H           0.7578    2.5962    4.0790 H       2  TYR2        0.0336
     15 H           0.0902    1.2185    4.9164 H       2  TYR2        0.0336
     16 C           1.7818    2.1336    5.8738 C.ar    2  TYR2       -0.0413
     17 C           1.4849    1.5774    7.1254 C.ar    2  TYR2       -0.0078
     18 H           0.7012    0.8295    7.2281 H       2  TYR2        0.0660
     19 C           2.1964    1.9741    8.2582 C.ar    2  TYR2        0.2255
     20 O           1.9684    1.5410    9.2281 O.3     2  TYR2       -0.2838
     21 C           3.1949    2.9340    8.1445 C.ar    2  TYR2        0.2253
     22 C           3.4978    3.5055    6.9137 C.ar    2  TYR2       -0.0108
     23 H           4.2717    4.2606    6.8164 H       2  TYR2        0.0657
     24 C           2.7920    3.1030    5.7784 C.ar    2  TYR2       -0.0546
     25 H           3.0288    3.5540    4.8148 H       2  TYR2        0.0621
     26 O           3.8617    3.2931    9.2780 O.3     2  TYR2       -0.2838
     27 H           2.9181    1.0381    3.7050 H       2  TYR2        0.0598
     28 H           0.8116   -0.0559    2.0702 H       2  TYR2        0.1495
     29 N           0.7092   -1.4589    3.9265 N.am    3  GLY3       -0.3033
     30 CA          0.6246   -2.8240    4.3981 C.3     3  GLY3        0.1089
     31 C           1.8075   -3.6314    3.8729 C.2     3  GLY3        0.3221
     32 O           2.4126   -4.4644    4.5431 O.2     3  GLY3       -0.2492
     33 HA1         0.6362   -2.8195    5.4934 H       3  GLY3        0.0577
     34 HA2        -0.3118   -3.2629    4.0425 H       3  GLY3        0.0577
     35 H           1.4996   -1.2106    3.3383 H       3  GLY3        0.1493
     36 OXT         2.1812   -3.3901    2.5972 O.3     3  GLY3       -0.4795
     37 HO          1.6571   -2.6686    2.0167 H       3  GLY3        0.2951
@<TRIPOS>BOND
     1     8     1    1
     2     1     2    1
     3     2     3    1
     4     3     4    2
     5     3     9   am
     6     9    10    1
     7    10    11    1
     8    11    12    2
     9    11    29   am
    10    29    30    1
    11    30    31    1
    12    31    32    2
    13    36    31    1
    14    37    36    1
    15     1     7    1
    16     9    28    1
    17    10    13    1
    18    10    27    1
    19    13    16    1
    20    16    17   ar
    21    16    24   ar
    22    17    19   ar
    23    19    21   ar
    24    21    22   ar
    25    21    26    1
    26    22    24   ar
    27    29    35    1
    28     6     2    1
    29     5     2    1
    30    34    30    1
    31    14    13    1
    32    30    33    1
    33    13    15    1
    34    25    24    1
    35    23    22    1
    36    17    18    1
    37    19    20    1
